
#======================================================================
# CRYSTAL DATA
#----------------------------------------------------------------------
data_VESTA_phase_1

_chemical_name_common                  'C7 H6 Cl2 N2 O'
_cell_length_a                         3.9242(4)
_cell_length_b                         6.7743(7)
_cell_length_c                         30.788(3)
_cell_angle_alpha                      90.000000
_cell_angle_beta                       91.745(6)
_cell_angle_gamma                      90.000000
_cell_volume                           818.079671
_space_group_name_H-M_alt              'P 21/n'
_space_group_IT_number                 14

loop_
_space_group_symop_operation_xyz
   'x, y, z'
   '-x, -y, -z'
   '-x+1/2, y+1/2, -z+1/2'
   'x+1/2, -y+1/2, z+1/2'

loop_
   _atom_site_label
   _atom_site_occupancy
   _atom_site_fract_x
   _atom_site_fract_y
   _atom_site_fract_z
   _atom_site_adp_type
   _atom_site_U_iso_or_equiv
   _atom_site_type_symbol
   Cl1        1.0     0.85602(17)  0.58189(9)   0.39382(2)  Uani  0.041960 Cl
   Cl2        1.0     0.6696(2)    0.61002(12)  0.29492(2)  Uani  0.060344 Cl
   O1         1.0     0.8049(5)    0.0182(4)    0.44719(5)  Uani  0.045348 O
   N1         1.0     0.5820(7)    0.3083(4)    0.46692(6)  Uani  0.037328 N
   N2         1.0     0.6732(8)    0.2848(4)    0.51168(7)  Uani  0.043940 N
   C1         1.0     0.6661(7)    0.1748(4)    0.43757(7)  Uani  0.030474 C
   C2         1.0     0.5682(5)    0.2159(4)    0.39077(7)  Uani  0.028858 C
   C3         1.0     0.6474(7)    0.3871(4)    0.36823(7)  Uani  0.028866 C
   C4         1.0     0.5603(7)    0.4029(4)    0.32442(8)  Uani  0.036782 C
   C5         1.0     0.3876(7)    0.2531(4)    0.30316(8)  Uani  0.045178 C
   H5         1.0     0.3264(7)    0.2660(4)    0.27388(8)  Uiso  0.054200 H
   C6         1.0     0.3055(7)    0.0844(4)    0.32529(9)  Uani  0.047152 C
   H6         1.0     0.1874(7)   -0.0166(4)    0.31097(9)  Uiso  0.056600 H
   C7         1.0     0.3977(7)    0.0644(4)    0.36863(8)  Uani  0.039214 C
   H7         1.0     0.3454(7)   -0.0515(4)    0.38322(8)  Uiso  0.047000 H
   H1         1.0     0.493(8)     0.424(5)     0.4610(10)  Uiso  0.059000 H
   H2a        1.0     0.877(8)     0.228(5)     0.5126(10)  Uiso  0.065000 H
   H2b        1.0     0.539(8)     0.191(5)     0.5197(10)  Uiso  0.060000 H

loop_
   _atom_site_aniso_label
   _atom_site_aniso_U_11
   _atom_site_aniso_U_22
   _atom_site_aniso_U_33
   _atom_site_aniso_U_12
   _atom_site_aniso_U_13
   _atom_site_aniso_U_23
   Cl1	 0.05010  0.03460  0.04110 -0.00850  0.00010 -0.00070
   Cl2	 0.06410  0.07200  0.04500  0.00470  0.00280  0.02750
   O1	 0.06350  0.03510  0.03740  0.01840  0.00080  0.00400
   N1	 0.05620  0.03070  0.02490  0.01150 -0.00180  0.00070
   N2	 0.06130  0.04540  0.02490  0.00930 -0.00230  0.00180
   C1	 0.03280  0.03080  0.02790  0.00150  0.00220  0.00270
   C2	 0.02860  0.02990  0.02810  0.00690  0.00130 -0.00300
   C3	 0.02790  0.02970  0.02900  0.00530  0.00090 -0.00270
   C4	 0.03550  0.04620  0.02880  0.01110  0.00350  0.00510
   C5	 0.04410  0.06310  0.02800  0.01310 -0.00440 -0.00930
   C6	 0.04350  0.05130  0.04620  0.00390 -0.00610 -0.02080
   C7	 0.04090  0.03410  0.04260  0.00210  0.00060 -0.00760
